Recibida el día de hoy, viernes ocho de noviembre del dos mil trece, a las nueve horas y siete minutos, el proceso seguido por: SALMERON FIDEL PATRICIO en contra de COROZO CANGA TELEMACO FIDIAN, COROZO CANGA TELEMACO FIDIAN, GARCIA QUINTERO INGRID ANGELICA. Por RESORTEO su conocimiento correspondió a la UNIDAD JUDICIAL PENAL NORTE 2 GUAYAQUIL y al número: 09286-2013-7220.

GUAYAQUIL, Viernes 8 de Noviembre del 2013.